@<TRIPOS>MOLECULE
temp/vina_out.pdbqt
   15    15     1     0     0
SMALL
bcc


@<TRIPOS>ATOM
      1 C           39.0440     0.0580   107.9400 C.3        1 MEB      -0.053800
      2 C1          38.6150     1.3090   107.2090 C.ar       1 MEB      -0.077300
      3 C2          38.9170     2.5880   107.7110 C.ar       1 MEB      -0.131000
      4 C3          38.4970     3.7470   107.0370 C.ar       1 MEB      -0.127000
      5 C4          37.7640     3.6420   105.8460 C.ar       1 MEB      -0.135000
      6 C5          37.4550     2.3720   105.3330 C.ar       1 MEB      -0.127000
      7 C6          37.8780     1.2180   106.0110 C.ar       1 MEB      -0.131000
      8 H           38.7180    -0.8030   107.3950 H          1 MEB       0.044033
      9 H1          38.6070     0.0480   108.9170 H          1 MEB       0.044033
     10 H2          40.1100     0.0430   108.0260 H          1 MEB       0.044033
     11 H3          39.4550     2.6760   108.5870 H          1 MEB       0.130000
     12 H4          38.7280     4.6770   107.4190 H          1 MEB       0.130000
     13 H5          37.4540     4.4920   105.3500 H          1 MEB       0.130000
     14 H6          36.9160     2.2870   104.4570 H          1 MEB       0.130000
     15 H7          37.6460     0.2890   105.6260 H          1 MEB       0.130000
@<TRIPOS>BOND
     1     6     5 ar  
     2     6     7 ar  
     3     5     4 ar  
     4     7     2 ar  
     5     4     3 ar  
     6     2     3 ar  
     7     2     1 1   
     8     1     8 1   
     9     1     9 1   
    10     1    10 1   
    11     3    11 1   
    12     4    12 1   
    13     5    13 1   
    14     6    14 1   
    15     7    15 1   
@<TRIPOS>SUBSTRUCTURE
     1 MEB         1 TEMP              0 ****  ****    0 ROOT
